Version 4
SHEET 1 880 680
WIRE -512 -368 -752 -368
WIRE -160 -368 -288 -368
WIRE -512 -288 -528 -288
WIRE -192 -288 -288 -288
WIRE -64 -288 -192 -288
WIRE -624 -208 -672 -208
WIRE -512 -208 -544 -208
WIRE -192 -208 -288 -208
WIRE -64 -208 -64 -288
WIRE 64 -208 -64 -208
WIRE -64 -192 -64 -208
WIRE 64 -192 64 -208
WIRE -672 -144 -672 -208
WIRE -64 -96 -64 -128
WIRE 64 -96 64 -112
FLAG 64 -96 0
FLAG -528 -288 0
FLAG 64 -208 V+
FLAG -64 -96 0
FLAG -160 -368 Vpwm
IOPIN -160 -368 Out
FLAG -752 -288 0
FLAG -672 -144 0
FLAG -192 -128 0
SYMBOL voltage 64 -208 R0
WINDOW 123 24 138 Left 2
WINDOW 39 24 117 Left 2
SYMATTR InstName V3
SYMATTR Value 5V
SYMBOL SpecialFunctions\\LTC6992-1 -400 -288 R0
SYMATTR InstName U2
SYMBOL res -640 -192 R270
WINDOW 0 32 56 VTop 2
WINDOW 3 0 56 VBottom 2
SYMATTR InstName R6
SYMATTR Value 62.5k
SYMBOL cap -80 -192 R0
SYMATTR InstName C2
SYMATTR Value .1µ
SYMBOL voltage -752 -384 R0
WINDOW 123 0 0 Left 0
WINDOW 39 0 0 Left 0
WINDOW 0 -62 52 Left 2
WINDOW 3 -100 -15 Left 2
SYMATTR InstName V1
SYMATTR Value SINE(0.5 0.39 500)
SYMBOL res -208 -304 R0
SYMATTR InstName R1
SYMATTR Value 102k
SYMBOL res -208 -224 R0
SYMATTR InstName R2
SYMATTR Value 976k
TEXT -784 -72 Left 2 !.tran 6m
